@!IC,SBASE,REV,XFRRAT,NXFRAT,BASFRQ
0,  100.00, 36,     0,     0, 60.00     / PSS(R)E Xplore-36.1    SAT, APR 26 2025  18:26
NEW ENGLAND TEST SYSTEM, 39 BUSES, 9 GENERATORS
CREATED BY PABLO LEDESMA PABLOLE@ING.UC3M.ES
GENERAL, THRSHZ=0.0001, PQBRAK=0.7, BLOWUP=5.0, MaxIsolLvls=4, CAMaxReptSln=20, ChkDupCntLbl=0
GAUSS, ITMX=100, ACCP=1.6, ACCQ=1.6, ACCM=1.0, TOL=0.0001
NEWTON, ITMXN=20, ACCN=1.0, TOLN=0.1, VCTOLQ=0.1, VCTOLV=0.00001, DVLIM=0.99, NDVFCT=0.99
ADJUST, ADJTHR=0.005, ACCTAP=1.0, TAPLIM=0.05, SWVBND=100.0, MXTPSS=99, MXSWIM=10
TYSL, ITMXTY=20, ACCTY=1.0, TOLTY=0.00001
SOLVER, FDNS, ACTAPS=0, AREAIN=0, PHSHFT=0, DCTAPS=1, SWSHNT=1, FLATST=0, VARLIM=99, NONDIV=0
RATING, 1, "RATE1 ", "RATING SET 1                    "
RATING, 2, "RATE2 ", "RATING SET 2                    "
RATING, 3, "RATE3 ", "RATING SET 3                    "
RATING, 4, "RATE4 ", "RATING SET 4                    "
RATING, 5, "RATE5 ", "RATING SET 5                    "
RATING, 6, "RATE6 ", "RATING SET 6                    "
RATING, 7, "RATE7 ", "RATING SET 7                    "
RATING, 8, "RATE8 ", "RATING SET 8                    "
RATING, 9, "RATE9 ", "RATING SET 9                    "
RATING,10, "RATE10", "RATING SET 10                   "
RATING,11, "RATE11", "RATING SET 11                   "
RATING,12, "RATE12", "RATING SET 12                   "
SWDRATNAM,  1, "RATE1 ", 0, "MVA", "SWD RATING SET 1                "
SWDRATNAM,  2, "RATE2 ", 0, "MVA", "SWD RATING SET 2                "
SWDRATNAM,  3, "RATE3 ", 0, "MVA", "SWD RATING SET 3                "
SWDRATNAM,  4, "RATE4 ", 0, "MVA", "SWD RATING SET 4                "
SWDRATNAM,  5, "RATE5 ", 0, "MVA", "SWD RATING SET 5                "
SWDRATNAM,  6, "RATE6 ", 0, "MVA", "SWD RATING SET 6                "
SWDRATNAM,  7, "RATE7 ", 0, "MVA", "SWD RATING SET 7                "
SWDRATNAM,  8, "RATE8 ", 0, "MVA", "SWD RATING SET 8                "
SWDRATNAM,  9, "RATE9 ", 0, "MVA", "SWD RATING SET 9                "
SWDRATNAM, 10, "RATE10", 0, "MVA", "SWD RATING SET 10               "
SWDRATNAM, 11, "RATE11", 0, "MVA", "SWD RATING SET 11               "
SWDRATNAM, 12, "RATE12", 0, "MVA", "SWD RATING SET 12               "
0 / END OF SYSTEM-WIDE DATA, BEGIN BUS DATA
@!   I,'NAME        ', BASKV, IDE,AREA,ZONE,OWNER, VM,        VA,    NVHI,   NVLO,   EVHI,   EVLO
     1,'1           ',   1.0000,1,   1,   1,   1,1.05178,  -8.5720,1.10000,0.90000,1.10000,0.90000
     2,'2           ',   1.0000,1,   1,   1,   1,1.05988,  -6.1284,1.10000,0.90000,1.10000,0.90000
     3,'3           ',   1.0000,1,   1,   1,   1,1.05655,  -8.9468,1.10000,0.90000,1.10000,0.90000
     4,'4           ',   1.0000,1,   1,   1,   1,1.05919,  -9.7787,1.10000,0.90000,1.10000,0.90000
     5,'5           ',   1.0000,1,   1,   1,   1,1.07359,  -8.7674,1.10000,0.90000,1.10000,0.90000
     6,'6           ',   1.0000,1,   1,   1,   1,1.07428,  -8.1427,1.10000,0.90000,1.10000,0.90000
     7,'7           ',   1.0000,1,   1,   1,   1,1.06116, -10.0765,1.10000,0.90000,1.10000,0.90000
     8,'8           ',   1.0000,1,   1,   1,   1,1.05859, -10.5180,1.10000,0.90000,1.10000,0.90000
     9,'9           ',   1.0000,1,   1,   1,   1,1.05402, -10.2766,1.10000,0.90000,1.10000,0.90000
    10,'10          ',   1.0000,1,   1,   1,   1,1.06106,  -5.8687,1.10000,0.90000,1.10000,0.90000
    11,'11          ',   1.0000,1,   1,   1,   1,1.06429,  -6.6552,1.10000,0.90000,1.10000,0.90000
    12,'12          ',   1.0000,1,   1,   1,   1,1.04934,  -6.6355,1.10000,0.90000,1.10000,0.90000
    13,'13          ',   1.0000,1,   1,   1,   1,1.05870,  -6.5195,1.10000,0.90000,1.10000,0.90000
    14,'14          ',   1.0000,1,   1,   1,   1,1.05614,  -8.0334,1.10000,0.90000,1.10000,0.90000
    15,'15          ',   1.0000,1,   1,   1,   1,1.04089,  -8.3098,1.10000,0.90000,1.10000,0.90000
    16,'16          ',   1.0000,1,   1,   1,   1,1.04853,  -6.9052,1.10000,0.90000,1.10000,0.90000
    17,'17          ',   1.0000,1,   1,   1,   1,1.05175,  -7.8681,1.10000,0.90000,1.10000,0.90000
    18,'18          ',   1.0000,1,   1,   1,   1,1.05233,  -8.6927,1.10000,0.90000,1.10000,0.90000
    19,'19          ',   1.0000,1,   1,   1,   1,1.05599,  -2.3320,1.10000,0.90000,1.10000,0.90000
    20,'20          ',   1.0000,1,   1,   1,   1,0.99422,  -3.7235,1.10000,0.90000,1.10000,0.90000
    21,'21          ',   1.0000,1,   1,   1,   1,1.04355,  -4.5464,1.10000,0.90000,1.10000,0.90000
    22,'22          ',   1.0000,1,   1,   1,   1,1.05611,  -0.1569,1.10000,0.90000,1.10000,0.90000
    23,'23          ',   1.0000,1,   1,   1,   1,1.05132,  -0.3532,1.10000,0.90000,1.10000,0.90000
    24,'24          ',   1.0000,1,   1,   1,   1,1.05258,  -6.7853,1.10000,0.90000,1.10000,0.90000
    25,'25          ',   1.0000,1,   1,   1,   1,1.06582,  -4.6948,1.10000,0.90000,1.10000,0.90000
    26,'26          ',   1.0000,1,   1,   1,   1,1.06229,  -5.9723,1.10000,0.90000,1.10000,0.90000
    27,'27          ',   1.0000,1,   1,   1,   1,1.05173,  -7.9718,1.10000,0.90000,1.10000,0.90000
    28,'28          ',   1.0000,1,   1,   1,   1,1.05541,  -2.4902,1.10000,0.90000,1.10000,0.90000
    29,'29          ',   1.0000,1,   1,   1,   1,1.05357,   0.2533,1.10000,0.90000,1.10000,0.90000
    30,'30          ',   1.0000,2,   1,   1,   1,1.04750,  -3.7341,1.10000,0.90000,1.10000,0.90000
    31,'31          ',   1.0000,3,   1,   1,   1,0.98200,  -1.5868,1.10000,0.90000,1.10000,0.90000
    32,'32          ',   1.0000,2,   1,   1,   1,0.98310,   1.7945,1.10000,0.90000,1.10000,0.90000
    33,'33          ',   1.0000,2,   1,   1,   1,0.99720,   2.8715,1.10000,0.90000,1.10000,0.90000
    34,'34          ',   1.0000,2,   1,   1,   1,1.01230,   1.4591,1.10000,0.90000,1.10000,0.90000
    35,'35          ',   1.0000,2,   1,   1,   1,1.04930,   4.7751,1.10000,0.90000,1.10000,0.90000
    36,'36          ',   1.0000,2,   1,   1,   1,1.06350,   7.4572,1.10000,0.90000,1.10000,0.90000
    37,'37          ',   1.0000,2,   1,   1,   1,1.02780,   2.0485,1.10000,0.90000,1.10000,0.90000
    38,'38          ',   1.0000,2,   1,   1,   1,1.02650,   7.3024,1.10000,0.90000,1.10000,0.90000
    39,'39          ',   1.0000,2,   1,   1,   1,1.03000, -10.0638,1.10000,0.90000,1.10000,0.90000
0 / END OF BUS DATA, BEGIN LOAD DATA
@!   I,'ID',STAT,AREA,ZONE,      PL,        QL,        IP,        IQ,        YP,        YQ, OWNER,SCALE,INTRPT,  DGENP,     DGENQ,DGENF,'  LOAD TYPE ',               'N A M E'
     1,'1 ',   1,   1,   1,     0.000,     0.000,     0.000,     0.000,     0.000,     0.000,   1,    1,  0,     0.000,     0.000,    0,'            ','                                        '
     2,'1 ',   1,   1,   1,     0.000,     0.000,     0.000,     0.000,     0.000,     0.000,   1,    1,  0,     0.000,     0.000,    0,'            ','                                        '
     3,'1 ',   1,   1,   1,   322.000,     2.400,     0.000,     0.000,     0.000,     0.000,   1,    1,  0,     0.000,     0.000,    0,'            ','                                        '
     4,'1 ',   1,   1,   1,   500.000,   184.000,     0.000,     0.000,     0.000,     0.000,   1,    1,  0,     0.000,     0.000,    0,'            ','                                        '
     5,'1 ',   1,   1,   1,     0.000,     0.000,     0.000,     0.000,     0.000,     0.000,   1,    1,  0,     0.000,     0.000,    0,'            ','                                        '
     6,'1 ',   1,   1,   1,     0.000,     0.000,     0.000,     0.000,     0.000,     0.000,   1,    1,  0,     0.000,     0.000,    0,'            ','                                        '
     7,'1 ',   1,   1,   1,   233.800,    84.000,     0.000,     0.000,     0.000,     0.000,   1,    1,  0,     0.000,     0.000,    0,'            ','                                        '
     8,'1 ',   1,   1,   1,   522.000,   176.000,     0.000,     0.000,     0.000,     0.000,   1,    1,  0,     0.000,     0.000,    0,'            ','                                        '
     9,'1 ',   1,   1,   1,     0.000,     0.000,     0.000,     0.000,     0.000,     0.000,   1,    1,  0,     0.000,     0.000,    0,'            ','                                        '
    10,'1 ',   1,   1,   1,     0.000,     0.000,     0.000,     0.000,     0.000,     0.000,   1,    1,  0,     0.000,     0.000,    0,'            ','                                        '
    11,'1 ',   1,   1,   1,     0.000,     0.000,     0.000,     0.000,     0.000,     0.000,   1,    1,  0,     0.000,     0.000,    0,'            ','                                        '
    12,'1 ',   1,   1,   1,     7.500,    88.000,     0.000,     0.000,     0.000,     0.000,   1,    1,  0,     0.000,     0.000,    0,'            ','                                        '
    13,'1 ',   1,   1,   1,     0.000,     0.000,     0.000,     0.000,     0.000,     0.000,   1,    1,  0,     0.000,     0.000,    0,'            ','                                        '
    14,'1 ',   1,   1,   1,     0.000,     0.000,     0.000,     0.000,     0.000,     0.000,   1,    1,  0,     0.000,     0.000,    0,'            ','                                        '
    15,'1 ',   1,   1,   1,   320.000,   153.000,     0.000,     0.000,     0.000,     0.000,   1,    1,  0,     0.000,     0.000,    0,'            ','                                        '
    16,'1 ',   1,   1,   1,   329.400,    32.300,     0.000,     0.000,     0.000,     0.000,   1,    1,  0,     0.000,     0.000,    0,'            ','                                        '
    17,'1 ',   1,   1,   1,     0.000,     0.000,     0.000,     0.000,     0.000,     0.000,   1,    1,  0,     0.000,     0.000,    0,'            ','                                        '
    18,'1 ',   1,   1,   1,   158.000,    30.000,     0.000,     0.000,     0.000,     0.000,   1,    1,  0,     0.000,     0.000,    0,'            ','                                        '
    19,'1 ',   1,   1,   1,     0.000,     0.000,     0.000,     0.000,     0.000,     0.000,   1,    1,  0,     0.000,     0.000,    0,'            ','                                        '
    20,'1 ',   1,   1,   1,   680.000,   103.000,     0.000,     0.000,     0.000,     0.000,   1,    1,  0,     0.000,     0.000,    0,'            ','                                        '
    21,'1 ',   1,   1,   1,   274.000,   115.000,     0.000,     0.000,     0.000,     0.000,   1,    1,  0,     0.000,     0.000,    0,'            ','                                        '
    22,'1 ',   1,   1,   1,     0.000,     0.000,     0.000,     0.000,     0.000,     0.000,   1,    1,  0,     0.000,     0.000,    0,'            ','                                        '
    23,'1 ',   1,   1,   1,   247.500,    84.600,     0.000,     0.000,     0.000,     0.000,   1,    1,  0,     0.000,     0.000,    0,'            ','                                        '
    24,'1 ',   1,   1,   1,   308.600,   -92.200,     0.000,     0.000,     0.000,     0.000,   1,    1,  0,     0.000,     0.000,    0,'            ','                                        '
    25,'1 ',   1,   1,   1,   224.000,    47.200,     0.000,     0.000,     0.000,     0.000,   1,    1,  0,     0.000,     0.000,    0,'            ','                                        '
    26,'1 ',   1,   1,   1,   139.000,    17.000,     0.000,     0.000,     0.000,     0.000,   1,    1,  0,     0.000,     0.000,    0,'            ','                                        '
    27,'1 ',   1,   1,   1,   281.000,    75.500,     0.000,     0.000,     0.000,     0.000,   1,    1,  0,     0.000,     0.000,    0,'            ','                                        '
    28,'1 ',   1,   1,   1,   206.000,    27.600,     0.000,     0.000,     0.000,     0.000,   1,    1,  0,     0.000,     0.000,    0,'            ','                                        '
    29,'1 ',   1,   1,   1,   283.500,    26.900,     0.000,     0.000,     0.000,     0.000,   1,    1,  0,     0.000,     0.000,    0,'            ','                                        '
    31,'1 ',   1,   1,   1,     9.200,     4.600,     0.000,     0.000,     0.000,     0.000,   1,    1,  0,     0.000,     0.000,    0,'            ','                                        '
    39,'1 ',   1,   1,   1,  1104.000,   250.000,     0.000,     0.000,     0.000,     0.000,   1,    1,  0,     0.000,     0.000,    0,'            ','                                        '
0 / END OF LOAD DATA, BEGIN FIXED SHUNT DATA
@!   I,'ID',STATUS,  GL,        BL,                'N A M E'
     4,' 1',1,     0.000,   100.000,'                                        '
     5,' 1',1,     0.000,   200.000,'                                        '
0 / END OF FIXED SHUNT DATA, BEGIN VOLTAGE DROOP CONTROL DATA
@!'NAME',                              STATUS,REGBUS,       QDB,      QMIN,      QMAX, VDBLOW,VDBHIGH,  VLOW,   VHIGH
0 / END OF VOLTAGE DROOP CONTROL DATA, BEGIN GENERATOR DATA
@!   I,'ID',      PG,        QG,        QT,        QB,     VS,    IREG,NREG,     MBASE,     ZR,         ZX,         RT,         XT,     GTAP,STAT, RMPCT,      PT,        PB,BASLOD,O1,    F1,  O2,    F2,  O3,    F3,  O4,    F4,WMOD, WPF          'DROOPNAME'                                      'N A M E'
    30,'1 ',   250.000,    83.210,   800.000,  -500.000,1.04750,    30,   0,   100.000, 0.00000E+0, 1.00000E+0, 0.00000E+0, 0.00000E+0,1.00000,1,  100.0,   500.000,     0.000, 0,   1,1.0000
    31,'1 ',   571.284,   363.948,   800.000,  -500.000,0.98200,    31,   0,   100.000, 0.00000E+0, 1.00000E+0, 0.00000E+0, 0.00000E+0,1.00000,1,  100.0,   750.000,     0.000, 0,   1,1.0000
    32,'1 ',   650.000,     1.530,   800.000,  -500.000,0.98310,    32,   0,   100.000, 0.00000E+0, 1.00000E+0, 0.00000E+0, 0.00000E+0,1.00000,1,  100.0,   750.000,     0.000, 0,   1,1.0000
    33,'1 ',   632.000,    69.666,   800.000,  -500.000,0.99720,    33,   0,   100.000, 0.00000E+0, 1.00000E+0, 0.00000E+0, 0.00000E+0,1.00000,1,  100.0,   750.000,     0.000, 0,   1,1.0000
    34,'1 ',   508.000,   148.790,   800.000,  -300.000,1.01230,    34,   0,   100.000, 0.00000E+0, 1.00000E+0, 0.00000E+0, 0.00000E+0,1.00000,1,  100.0,   650.000,     0.000, 0,   1,1.0000
    35,'1 ',   650.000,   167.044,   800.000,  -500.000,1.04930,    35,   0,   100.000, 0.00000E+0, 1.00000E+0, 0.00000E+0, 0.00000E+0,1.00000,1,  100.0,   750.000,     0.000, 0,   1,1.0000
    36,'1 ',   560.000,    75.448,   800.000,  -500.000,1.06350,    36,   0,   100.000, 0.00000E+0, 1.00000E+0, 0.00000E+0, 0.00000E+0,1.00000,1,  100.0,   670.000,     0.000, 0,   1,1.0000
    37,'1 ',   540.000,   -35.349,   800.000,  -500.000,1.02780,    37,   0,   100.000, 0.00000E+0, 1.00000E+0, 0.00000E+0, 0.00000E+0,1.00000,1,  100.0,   700.000,     0.000, 0,   1,1.0000
    38,'1 ',   830.000,    -0.474,   800.000,  -500.000,1.02650,    38,   0,   100.000, 0.00000E+0, 1.00000E+0, 0.00000E+0, 0.00000E+0,1.00000,1,  100.0,  1000.000,     0.000, 0,   1,1.0000
    39,'1 ',  1000.000,   -36.490,  1500.000, -1000.000,1.03000,    39,   0,   100.000, 0.00000E+0, 1.00000E+0, 0.00000E+0, 0.00000E+0,1.00000,1,  100.0,  1500.000,     0.000, 0,   1,1.0000
0 / END OF GENERATOR DATA, BEGIN SWITCHING DEVICE RATING SET DATA
@!                'N A M E'                 , 'DESCRIPTION',   RATE1,   RATE2,   RATE3,   RATE4,   RATE5,   RATE6,   RATE7,   RATE8,   RATE9,  RATE10,  RATE11,  RATE12
0 / END OF SWITCHING DEVICE RATING SET DATA, BEGIN BRANCH DATA
@!   I,     J,'CKT',      R,           X,       B,                   'N A M E'                 ,  RATE1,  RATE2,  RATE3,  RATE4,  RATE5,  RATE6,  RATE7,  RATE8,  RATE9, RATE10, RATE11, RATE12,   GI,      BI,      GJ,      BJ,STAT,MET, LEN,  O1,  F1,    O2,  F2,    O3,  F3,    O4,  F4
     1,     2,'1 ', 3.50000E-03, 4.11000E-02,0.69870,'                                        ',1000.00,   0.00,   1.00,   0.00,   0.00,   0.00,   0.00,   0.00,   0.00,   0.00,   0.00,   0.00, 0.00000, 0.00000, 0.00000, 0.00000, 1, 0, 1,  0.00,   1,1.0000
     1,    39,'1 ', 1.00000E-03, 2.50000E-02,0.75000,'                                        ',1000.00,   0.00,   1.00,   0.00,   0.00,   0.00,   0.00,   0.00,   0.00,   0.00,   0.00,   0.00, 0.00000, 0.00000, 0.00000, 0.00000, 1, 0, 1,  0.00,   1,1.0000
     2,     3,'1 ', 1.30000E-03, 1.51000E-02,0.25720,'                                        ',1000.00,   0.00,   1.00,   0.00,   0.00,   0.00,   0.00,   0.00,   0.00,   0.00,   0.00,   0.00, 0.00000, 0.00000, 0.00000, 0.00000, 1, 0, 1,  0.00,   1,1.0000
     2,    25,'1 ', 7.00000E-03, 8.60000E-03,0.14600,'                                        ',1000.00,   0.00,   1.00,   0.00,   0.00,   0.00,   0.00,   0.00,   0.00,   0.00,   0.00,   0.00, 0.00000, 0.00000, 0.00000, 0.00000, 1, 0, 1,  0.00,   1,1.0000
     3,     4,'1 ', 1.30000E-03, 2.13000E-02,0.22140,'                                        ',1000.00,   0.00,   1.00,   0.00,   0.00,   0.00,   0.00,   0.00,   0.00,   0.00,   0.00,   0.00, 0.00000, 0.00000, 0.00000, 0.00000, 1, 0, 1,  0.00,   1,1.0000
     3,    18,'1 ', 1.10000E-03, 1.33000E-02,0.21380,'                                        ',1000.00,   0.00,   1.00,   0.00,   0.00,   0.00,   0.00,   0.00,   0.00,   0.00,   0.00,   0.00, 0.00000, 0.00000, 0.00000, 0.00000, 1, 0, 1,  0.00,   1,1.0000
     4,     5,'1 ', 8.00000E-04, 1.28000E-02,0.13420,'                                        ',1000.00,   0.00,   1.00,   0.00,   0.00,   0.00,   0.00,   0.00,   0.00,   0.00,   0.00,   0.00, 0.00000, 0.00000, 0.00000, 0.00000, 1, 0, 1,  0.00,   1,1.0000
     4,    14,'1 ', 8.00000E-04, 1.29000E-02,0.13820,'                                        ',1000.00,   0.00,   1.00,   0.00,   0.00,   0.00,   0.00,   0.00,   0.00,   0.00,   0.00,   0.00, 0.00000, 0.00000, 0.00000, 0.00000, 1, 0, 1,  0.00,   1,1.0000
     5,     6,'1 ', 2.00000E-04, 2.60000E-03,0.04340,'                                        ',1000.00,   0.00,   1.00,   0.00,   0.00,   0.00,   0.00,   0.00,   0.00,   0.00,   0.00,   0.00, 0.00000, 0.00000, 0.00000, 0.00000, 1, 0, 2,  0.00,   1,1.0000
     5,     8,'1 ', 8.00000E-04, 1.12000E-02,0.14760,'                                        ',1000.00,   0.00,   1.00,   0.00,   0.00,   0.00,   0.00,   0.00,   0.00,   0.00,   0.00,   0.00, 0.00000, 0.00000, 0.00000, 0.00000, 1, 0, 1,  0.00,   1,1.0000
     6,     7,'1 ', 6.00000E-04, 9.20000E-03,0.11300,'                                        ',1000.00,   0.00,   1.00,   0.00,   0.00,   0.00,   0.00,   0.00,   0.00,   0.00,   0.00,   0.00, 0.00000, 0.00000, 0.00000, 0.00000, 1, 0, 1,  0.00,   1,1.0000
     6,    11,'1 ', 7.00000E-04, 8.20000E-03,0.13890,'                                        ',1000.00,   0.00,   1.00,   0.00,   0.00,   0.00,   0.00,   0.00,   0.00,   0.00,   0.00,   0.00, 0.00000, 0.00000, 0.00000, 0.00000, 1, 0, 1,  0.00,   1,1.0000
     7,     8,'1 ', 4.00000E-04, 4.60000E-03,0.07800,'                                        ',1000.00,   0.00,   1.00,   0.00,   0.00,   0.00,   0.00,   0.00,   0.00,   0.00,   0.00,   0.00, 0.00000, 0.00000, 0.00000, 0.00000, 1, 0, 1,  0.00,   1,1.0000
     8,     9,'1 ', 2.30000E-03, 3.63000E-02,0.38040,'                                        ',1000.00,   0.00,   1.00,   0.00,   0.00,   0.00,   0.00,   0.00,   0.00,   0.00,   0.00,   0.00, 0.00000, 0.00000, 0.00000, 0.00000, 1, 0, 1,  0.00,   1,1.0000
     9,    39,'1 ', 1.00000E-03, 2.50000E-02,1.20000,'                                        ',1000.00,   0.00,   1.00,   0.00,   0.00,   0.00,   0.00,   0.00,   0.00,   0.00,   0.00,   0.00, 0.00000, 0.00000, 0.00000, 0.00000, 1, 0, 1,  0.00,   1,1.0000
    10,    11,'1 ', 4.00000E-04, 4.30000E-03,0.07290,'                                        ',1000.00,   0.00,   1.00,   0.00,   0.00,   0.00,   0.00,   0.00,   0.00,   0.00,   0.00,   0.00, 0.00000, 0.00000, 0.00000, 0.00000, 1, 0, 1,  0.00,   1,1.0000
    10,    13,'1 ', 4.00000E-04, 4.30000E-03,0.07290,'                                        ',1000.00,   0.00,   1.00,   0.00,   0.00,   0.00,   0.00,   0.00,   0.00,   0.00,   0.00,   0.00, 0.00000, 0.00000, 0.00000, 0.00000, 1, 0, 1,  0.00,   1,1.0000
    13,    14,'1 ', 9.00000E-04, 1.01000E-02,0.17230,'                                        ',1000.00,   0.00,   1.00,   0.00,   0.00,   0.00,   0.00,   0.00,   0.00,   0.00,   0.00,   0.00, 0.00000, 0.00000, 0.00000, 0.00000, 1, 0, 1,  0.00,   1,1.0000
    14,    15,'1 ', 1.80000E-03, 2.17000E-02,0.36600,'                                        ',1000.00,   0.00,   1.00,   0.00,   0.00,   0.00,   0.00,   0.00,   0.00,   0.00,   0.00,   0.00, 0.00000, 0.00000, 0.00000, 0.00000, 1, 0, 1,  0.00,   1,1.0000
    15,    16,'1 ', 9.00000E-04, 9.40000E-03,0.17100,'                                        ',1000.00,   0.00,   1.00,   0.00,   0.00,   0.00,   0.00,   0.00,   0.00,   0.00,   0.00,   0.00, 0.00000, 0.00000, 0.00000, 0.00000, 1, 0, 1,  0.00,   1,1.0000
    16,    17,'1 ', 7.00000E-04, 8.90000E-03,0.13420,'                                        ',1000.00,   0.00,   1.00,   0.00,   0.00,   0.00,   0.00,   0.00,   0.00,   0.00,   0.00,   0.00, 0.00000, 0.00000, 0.00000, 0.00000, 1, 0, 1,  0.00,   1,1.0000
    16,    19,'1 ', 1.60000E-03, 1.95000E-02,0.30400,'                                        ', 500.00,   0.00,   1.00,   0.00,   0.00,   0.00,   0.00,   0.00,   0.00,   0.00,   0.00,   0.00, 0.00000, 0.00000, 0.00000, 0.00000, 1, 0, 1,  0.00,   1,1.0000
    16,    21,'1 ', 8.00000E-04, 1.35000E-02,0.25480,'                                        ', 500.00,   0.00,   1.00,   0.00,   0.00,   0.00,   0.00,   0.00,   0.00,   0.00,   0.00,   0.00, 0.00000, 0.00000, 0.00000, 0.00000, 1, 0, 1,  0.00,   1,1.0000
    16,    24,'1 ', 3.00000E-04, 5.90000E-03,0.06800,'                                        ', 500.00,   0.00,   1.00,   0.00,   0.00,   0.00,   0.00,   0.00,   0.00,   0.00,   0.00,   0.00, 0.00000, 0.00000, 0.00000, 0.00000, 1, 0, 1,  0.00,   1,1.0000
    17,    18,'1 ', 7.00000E-04, 8.20000E-03,0.13190,'                                        ', 500.00,   0.00,   1.00,   0.00,   0.00,   0.00,   0.00,   0.00,   0.00,   0.00,   0.00,   0.00, 0.00000, 0.00000, 0.00000, 0.00000, 1, 0, 1,  0.00,   1,1.0000
    17,    27,'1 ', 1.30000E-03, 1.73000E-02,0.32160,'                                        ', 500.00,   0.00,   1.00,   0.00,   0.00,   0.00,   0.00,   0.00,   0.00,   0.00,   0.00,   0.00, 0.00000, 0.00000, 0.00000, 0.00000, 1, 0, 1,  0.00,   1,1.0000
    21,    22,'1 ', 8.00000E-04, 1.40000E-02,0.25650,'                                        ', 500.00,   0.00,   1.00,   0.00,   0.00,   0.00,   0.00,   0.00,   0.00,   0.00,   0.00,   0.00, 0.00000, 0.00000, 0.00000, 0.00000, 1, 0, 1,  0.00,   1,1.0000
    22,    23,'1 ', 6.00000E-04, 9.60000E-03,0.18460,'                                        ', 500.00,   0.00,   1.00,   0.00,   0.00,   0.00,   0.00,   0.00,   0.00,   0.00,   0.00,   0.00, 0.00000, 0.00000, 0.00000, 0.00000, 1, 0, 1,  0.00,   1,1.0000
    23,    24,'1 ', 2.20000E-03, 3.50000E-02,0.36100,'                                        ', 500.00,   0.00,   1.00,   0.00,   0.00,   0.00,   0.00,   0.00,   0.00,   0.00,   0.00,   0.00, 0.00000, 0.00000, 0.00000, 0.00000, 1, 0, 1,  0.00,   1,1.0000
    25,    26,'1 ', 3.20000E-03, 3.23000E-02,0.51300,'                                        ', 500.00,   0.00,   1.00,   0.00,   0.00,   0.00,   0.00,   0.00,   0.00,   0.00,   0.00,   0.00, 0.00000, 0.00000, 0.00000, 0.00000, 1, 0, 1,  0.00,   1,1.0000
    26,    27,'1 ', 1.40000E-03, 1.47000E-02,0.23960,'                                        ', 500.00,   0.00,   1.00,   0.00,   0.00,   0.00,   0.00,   0.00,   0.00,   0.00,   0.00,   0.00, 0.00000, 0.00000, 0.00000, 0.00000, 1, 0, 1,  0.00,   1,1.0000
    26,    28,'1 ', 4.30000E-03, 4.74000E-02,0.78020,'                                        ', 500.00,   0.00,   1.00,   0.00,   0.00,   0.00,   0.00,   0.00,   0.00,   0.00,   0.00,   0.00, 0.00000, 0.00000, 0.00000, 0.00000, 1, 0, 1,  0.00,   1,1.0000
    26,    29,'1 ', 5.70000E-03, 6.25000E-02,1.02900,'                                        ', 500.00,   0.00,   1.00,   0.00,   0.00,   0.00,   0.00,   0.00,   0.00,   0.00,   0.00,   0.00, 0.00000, 0.00000, 0.00000, 0.00000, 1, 0, 1,  0.00,   1,1.0000
    28,    29,'1 ', 1.40000E-03, 1.51000E-02,0.24900,'                                        ', 500.00,   0.00,   1.00,   0.00,   0.00,   0.00,   0.00,   0.00,   0.00,   0.00,   0.00,   0.00, 0.00000, 0.00000, 0.00000, 0.00000, 1, 0, 1,  0.00,   1,1.0000
0 / END OF BRANCH DATA, BEGIN SYSTEM SWITCHING DEVICE DATA
@!   I,     J,'CKT',          X, 'RATING SET NAME'                       , STAT,NSTAT,  MET,STYPE,'NAME'
0 / END OF SYSTEM SWITCHING DEVICE DATA, BEGIN TRANSFORMER DATA
@!   I,     J,     K,'CKT',CW,CZ,CM,     MAG1,        MAG2,NMETR,               'N A M E',               STAT,O1,  F1,    O2,  F2,    O3,  F3,    O4,  F4,     'VECGRP', ZCOD
@!   R1-2,       X1-2, SBASE1-2,     R2-3,       X2-3, SBASE2-3,     R3-1,       X3-1, SBASE3-1, VMSTAR,   ANSTAR
@!WINDV1, NOMV1,   ANG1, RATE1-1, RATE1-2, RATE1-3, RATE1-4, RATE1-5, RATE1-6, RATE1-7, RATE1-8, RATE1-9,RATE1-10,RATE1-11,RATE1-12,COD1,CONT1,NOD1,  RMA1,   RMI1,   VMA1,   VMI1, NTP1,TAB1, CR1,    CX1,  CNXA1
@!WINDV2, NOMV2,   ANG2, RATE2-1, RATE2-2, RATE2-3, RATE2-4, RATE2-5, RATE2-6, RATE2-7, RATE2-8, RATE2-9,RATE2-10,RATE2-11,RATE2-12,COD2,CONT2,NOD2,  RMA2,   RMI2,   VMA2,   VMI2, NTP2,TAB2, CR2,    CX2,  CNXA2
@!WINDV3, NOMV3,   ANG3, RATE3-1, RATE3-2, RATE3-3, RATE3-4, RATE3-5, RATE3-6, RATE3-7, RATE3-8, RATE3-9,RATE3-10,RATE3-11,RATE3-12,COD3,CONT3,NOD3,  RMA3,   RMI3,   VMA3,   VMI3, NTP3,TAB3, CR3,    CX3,  CNXA3
     2,    30,     0,'1 ', 1, 1, 1, 0.00000E+00, 0.00000E+00,2,'                                        ',1,   1,1.0000,   0,1.0000,   0,1.0000,   0,1.0000,'            '
 0.00000E+00, 1.81000E-02, 100.00
1.02500,  0.000,  0.000,    0.00,    0.00,    0.00,    0.00,    0.00,    0.00,    0.00,    0.00,    0.00,    0.00,    0.00,    0.00, 0,      0,   0,1.20000,0.80000,1.20000,0.80000,   8, 0,0.00000,0.00000, 0.000
1.00000,   0.00
    31,     6,     0,'1 ', 1, 1, 1, 0.00000E+00, 0.00000E+00,2,'                                        ',1,   1,1.0000,   0,1.0000,   0,1.0000,   0,1.0000,'            '
 0.00000E+00, 2.50000E-02, 100.00
0.85714,  0.000,  0.000,    0.00,    0.00,    0.00,    0.00,    0.00,    0.00,    0.00,    0.00,    0.00,    0.00,    0.00,    0.00, 1,      6,   0,1.20000,0.80000,1.17000,0.98000,   8, 0,0.00000,0.00000, 0.000
1.00000,   0.00
    10,    32,     0,'1 ', 1, 1, 1, 0.00000E+00, 0.00000E+00,2,'                                        ',1,   1,1.0000,   0,1.0000,   0,1.0000,   0,1.0000,'            '
 0.00000E+00, 2.00000E-02, 100.00
1.07000,  0.000,  0.000,    0.00,    0.00,    0.00,    0.00,    0.00,    0.00,    0.00,    0.00,    0.00,    0.00,    0.00,    0.00, 0,      0,   0,1.20000,0.80000,1.20000,0.80000,   8, 0,0.00000,0.00000, 0.000
1.00000,   0.00
    12,    11,     0,'1 ', 1, 1, 1, 0.00000E+00, 0.00000E+00,2,'                                        ',1,   1,1.0000,   0,1.0000,   0,1.0000,   0,1.0000,'            '
 1.60000E-03, 4.35000E-02, 100.00
1.00600,  0.000,  0.000,    0.00,    0.00,    0.00,    0.00,    0.00,    0.00,    0.00,    0.00,    0.00,    0.00,    0.00,    0.00, 0,      0,   0,1.20000,0.80000,1.20000,0.80000,   8, 0,0.00000,0.00000, 0.000
1.00000,   0.00
    12,    13,     0,'1 ', 1, 1, 1, 0.00000E+00, 0.00000E+00,2,'                                        ',1,   1,1.0000,   0,1.0000,   0,1.0000,   0,1.0000,'            '
 1.60000E-03, 4.35000E-02, 100.00
1.00600,  0.000,  0.000,    0.00,    0.00,    0.00,    0.00,    0.00,    0.00,    0.00,    0.00,    0.00,    0.00,    0.00,    0.00, 0,      0,   0,1.20000,0.80000,1.20000,0.80000,   8, 0,0.00000,0.00000, 0.000
1.00000,   0.00
    19,    20,     0,'1 ', 1, 1, 1, 0.00000E+00, 0.00000E+00,2,'                                        ',1,   1,1.0000,   0,1.0000,   0,1.0000,   0,1.0000,'            '
 7.00000E-04, 1.38000E-02, 100.00
1.06000,  0.000,  0.000,    0.00,    0.00,    0.00,    0.00,    0.00,    0.00,    0.00,    0.00,    0.00,    0.00,    0.00,    0.00, 0,      0,   0,1.20000,0.80000,1.20000,0.80000,   8, 0,0.00000,0.00000, 0.000
1.00000,   0.00
    19,    33,     0,'1 ', 1, 1, 1, 0.00000E+00, 0.00000E+00,2,'                                        ',1,   1,1.0000,   0,1.0000,   0,1.0000,   0,1.0000,'            '
 7.00000E-04, 1.42000E-02, 100.00
1.07000,  0.000,  0.000,    0.00,    0.00,    0.00,    0.00,    0.00,    0.00,    0.00,    0.00,    0.00,    0.00,    0.00,    0.00, 0,      0,   0,1.20000,0.80000,1.20000,0.80000,   8, 0,0.00000,0.00000, 0.000
1.00000,   0.00
    20,    34,     0,'1 ', 1, 1, 1, 0.00000E+00, 0.00000E+00,2,'                                        ',1,   1,1.0000,   0,1.0000,   0,1.0000,   0,1.0000,'            '
 9.00000E-04, 1.80000E-02, 100.00
1.00900,  0.000,  0.000,    0.00,    0.00,    0.00,    0.00,    0.00,    0.00,    0.00,    0.00,    0.00,    0.00,    0.00,    0.00, 0,      0,   0,1.20000,0.80000,1.20000,0.80000,   8, 0,0.00000,0.00000, 0.000
1.00000,   0.00
    22,    35,     0,'1 ', 1, 1, 1, 0.00000E+00, 0.00000E+00,2,'                                        ',1,   1,1.0000,   0,1.0000,   0,1.0000,   0,1.0000,'            '
 0.00000E+00, 1.43000E-02, 100.00
1.02500,  0.000,  0.000,    0.00,    0.00,    0.00,    0.00,    0.00,    0.00,    0.00,    0.00,    0.00,    0.00,    0.00,    0.00, 0,      0,   0,1.20000,0.80000,1.20000,0.80000,   8, 0,0.00000,0.00000, 0.000
1.00000,   0.00
    23,    36,     0,'1 ', 1, 1, 1, 0.00000E+00, 0.00000E+00,2,'                                        ',1,   1,1.0000,   0,1.0000,   0,1.0000,   0,1.0000,'            '
 5.00000E-04, 2.72000E-02, 100.00