Begin Report RATE_3
PSS(R)E Xplore-36.1.0 LIMIT CHECKING REPORT - BRANCH FLOWS          TUE, APR 29 2025  21:31
NEW ENGLAND TEST SYSTEM, 39 BUSES, 9 GENERATORS
CREATED BY PABLO LEDESMA PABLOLE@ING.UC3M.ES

SUBSYSTEM LOADING CHECK (INCLUDED: LINES; BREAKERS AND SWITCHES; TRANSFORMERS) (EXCLUDED: NONE)
MVA LOADINGS ABOVE 100.0 % OF BRANCH RATING:
LOADINGS ABOVE 100.0 % OF SWITCHING DEVICE RATING

X----------- FROM BUS ------------X X------------ TO BUS -------------X               RATING SET 1    RATING SET 3
  BUS#-SCT X-- NAME --X BASKV  AREA   BUS#-SCT X-- NAME --X BASKV  AREA CKT LOADING   RATE1 PERCENT   RATE3 PERCENT
     1     1           1.0000     1      2     2           1.0000*    1  1    772.4  1000.0    77.2     1.0 77242.4
     1     1           1.0000*    1     39     39          1.0000     1  1    267.7  1000.0    26.8     1.0 26772.8
     2     2           1.0000     1      3     3           1.0000*    1  1    112.5  1000.0    11.3     1.0 11252.3
     2     2           1.0000     1     25     25          1.0000*    1  1    462.0  1000.0    46.2     1.0 46197.0
     3     3           1.0000*    1      4     4           1.0000     1  1     46.2  1000.0     4.6     1.0  4616.0
     3     3           1.0000     1     18     18          1.0000*    1  1    439.9  1000.0    44.0     1.0 43986.0
     4     4           1.0000*    1      5     5           1.0000     1  1    166.3  1000.0    16.6     1.0 16632.8
     4     4           1.0000     1     14     14          1.0000*    1  1    447.8  1000.0    44.8     1.0 44777.7
     5     5           1.0000     1      6     6           1.0000*    1  1    560.4  1000.0    56.0     1.0 56037.5
     5     5           1.0000*    1      8     8           1.0000     1  1    530.3  1000.0    53.0     1.0 53034.9
     6     6           1.0000*    1      7     7           1.0000     1  1    618.2  1000.0    61.8     1.0 61823.4
     6     6           1.0000     1     11     11          1.0000*    1  1    518.0  1000.0    51.8     1.0 51796.5
     7     7           1.0000*    1      8     8           1.0000     1  1    367.9  1000.0    36.8     1.0 36794.6
     8     8           1.0000*    1      9     9           1.0000     1  1    360.1  1000.0    36.0     1.0 36005.5
     9     9           1.0000     1     39     39          1.0000*    1  1    360.5  1000.0    36.0     1.0 36046.9
    10     10          1.0000*    1     11     11          1.0000     1  1    493.3  1000.0    49.3     1.0 49327.1
    10     10          1.0000     1     13     13          1.0000*    1  1    199.9  1000.0    20.0     1.0 19986.9
    13     13          1.0000     1     14     14          1.0000*    1  1    172.4  1000.0    17.2     1.0 17241.1
    14     14          1.0000     1     15     15          1.0000*    1  1    339.3  1000.0    33.9     1.0 33928.6
    15     15          1.0000     1     16     16          1.0000*    1  1    623.7  1000.0    62.4     1.0 62370.1
    16     16          1.0000     1     17     17          1.0000*    1  1    826.5  1000.0    82.6     1.0 82649.7
    16     16          1.0000     1     19     19          1.0000*    1  1   1432.7   500.0   286.5     1.0143271.2
    16     16          1.0000*    1     21     21          1.0000     1  1    332.4   500.0    66.5     1.0 33240.6
    16     16          1.0000*    1     24     24          1.0000     1  1    142.8   500.0    28.6     1.0 14277.8
    17     17          1.0000*    1     18     18          1.0000     1  1    589.6   500.0   117.9     1.0 58957.4
    17     17          1.0000*    1     27     27          1.0000     1  1    243.4   500.0    48.7     1.0 24339.0
    21     21          1.0000     1     22     22          1.0000*    1  1    631.8   500.0   126.4     1.0 63175.5
    22     22          1.0000     1     23     23          1.0000*    1  1     77.8   500.0    15.6     1.0  7778.0
    23     23          1.0000*    1     24     24          1.0000     1  1    356.4   500.0    71.3     1.0 35645.0
    25     25          1.0000     1     26     26          1.0000*    1  1    153.0   500.0    30.6     1.0 15296.7
    26     26          1.0000     1     27     27          1.0000*    1  1    155.1   500.0    31.0     1.0 15507.5
    26     26          1.0000     1     28     28          1.0000*    1  1    148.6   500.0    29.7     1.0 14855.0
    26     26          1.0000     1     29     29          1.0000*    1  1    199.9   500.0    40.0     1.0 19992.7
    28     28          1.0000     1     29     29          1.0000*    1  1    350.3   500.0    70.1     1.0 35034.5
