Begin Report RATE_3
PSS(R)E Xplore-36.1.0 LIMIT CHECKING REPORT - BRANCH FLOWS          TUE, APR 29 2025  21:31
NEW ENGLAND TEST SYSTEM, 39 BUSES, 9 GENERATORS
CREATED BY PABLO LEDESMA PABLOLE@ING.UC3M.ES

SUBSYSTEM LOADING CHECK (INCLUDED: LINES; BREAKERS AND SWITCHES; TRANSFORMERS) (EXCLUDED: NONE)
MVA LOADINGS ABOVE 100.0 % OF BRANCH RATING:
LOADINGS ABOVE 100.0 % OF SWITCHING DEVICE RATING

X----------- FROM BUS ------------X X------------ TO BUS -------------X               RATING SET 1    RATING SET 3
  BUS#-SCT X-- NAME --X BASKV  AREA   BUS#-SCT X-- NAME --X BASKV  AREA CKT LOADING   RATE1 PERCENT   RATE3 PERCENT
     1     1           1.0000     1      2     2           1.0000*    1  1    178.8  1000.0    17.9     1.0 17884.2
     1     1           1.0000     1     39     39          1.0000*    1  1    187.9  1000.0    18.8     1.0 18794.6
     2     2           1.0000*    1      3     3           1.0000     1  1    430.8  1000.0    43.1     1.0 43080.4
     2     2           1.0000     1     25     25          1.0000*    1  1    358.3  1000.0    35.8     1.0 35829.7
     3     3           1.0000*    1      4     4           1.0000     1  1    480.1  1000.0    48.0     1.0 48011.5
     3     3           1.0000     1     18     18          1.0000*    1  1    417.5  1000.0    41.7     1.0 41748.4
     4     4           1.0000     1      5     5           1.0000*    1  1    430.1  1000.0    43.0     1.0 43012.4
     4     4           1.0000*    1     14     14          1.0000     1  1    657.4  1000.0    65.7     1.0 65737.2
     5     5           1.0000     1      6     6           1.0000*    1  1    652.2  1000.0    65.2     1.0 65222.4
     5     5           1.0000     1      8     8           1.0000*    1  1    286.9  1000.0    28.7     1.0 28689.9
     6     6           1.0000*    1      7     7           1.0000     1  1    436.5  1000.0    43.6     1.0 43646.9
     6     6           1.0000     1     11     11          1.0000*    1  1    466.4  1000.0    46.6     1.0 46642.2
     7     7           1.0000     1      8     8           1.0000*    1  1    188.9  1000.0    18.9     1.0 18888.7
     8     8           1.0000*    1      9     9           1.0000     1  1     80.7  1000.0     8.1     1.0  8071.9
     9     9           1.0000     1     39     39          1.0000*    1  1    134.7  1000.0    13.5     1.0 13467.5
    10     10          1.0000*    1     11     11          1.0000     1  1    442.7  1000.0    44.3     1.0 44267.2
    10     10          1.0000     1     13     13          1.0000*    1  1    273.3  1000.0    27.3     1.0 27328.4
    13     13          1.0000     1     14     14          1.0000*    1  1    249.6  1000.0    25.0     1.0 24960.9
    14     14          1.0000*    1     15     15          1.0000     1  1    486.6  1000.0    48.7     1.0 48658.7
    15     15          1.0000     1     16     16          1.0000*    1  1    778.0  1000.0    77.8     1.0 77804.5
    16     16          1.0000     1     17     17          1.0000*    1  1    700.8  1000.0    70.1     1.0 70075.2
    16     16          1.0000     1     19     19          1.0000*    1  1    502.9   500.0   100.6     1.0 50292.9
    16     16          1.0000*    1     21     21          1.0000     1  1    865.9   500.0   173.2     1.0 86585.2
    16     16          1.0000*    1     24     24          1.0000     1  1    503.2   500.0   100.6     1.0 50318.2
    17     17          1.0000     1     18     18          1.0000*    1  1    562.9   500.0   112.6     1.0 56290.3
    17     17          1.0000*    1     27     27          1.0000     1  1    160.7   500.0    32.1     1.0 16074.7
    21     21          1.0000     1     22     22          1.0000*    1  1   1146.7   500.0   229.3     1.0114669.1
    22     22          1.0000*    1     23     23          1.0000     1  1    602.4   500.0   120.5     1.0 60240.4
    23     23          1.0000     1     24     24          1.0000*    1  1    823.5   500.0   164.7     1.0 82354.9
    25     25          1.0000     1     26     26          1.0000*    1  1     84.8   500.0    17.0     1.0  8480.9
    26     26          1.0000     1     27     27          1.0000*    1  1    230.2   500.0    46.0     1.0 23024.2
    26     26          1.0000     1     28     28          1.0000*    1  1    147.0   500.0    29.4     1.0 14696.9
    26     26          1.0000     1     29     29          1.0000*    1  1    198.3   500.0    39.7     1.0 19830.4
    28     28          1.0000     1     29     29          1.0000*    1  1    350.0   500.0    70.0     1.0 34998.7
