Begin Report RATE_3
PSS(R)E Xplore-36.1.0 LIMIT CHECKING REPORT - BRANCH FLOWS          TUE, APR 29 2025  21:31
NEW ENGLAND TEST SYSTEM, 39 BUSES, 9 GENERATORS
CREATED BY PABLO LEDESMA PABLOLE@ING.UC3M.ES

SUBSYSTEM LOADING CHECK (INCLUDED: LINES; BREAKERS AND SWITCHES; TRANSFORMERS) (EXCLUDED: NONE)
MVA LOADINGS ABOVE 100.0 % OF BRANCH RATING:
LOADINGS ABOVE 100.0 % OF SWITCHING DEVICE RATING

X----------- FROM BUS ------------X X------------ TO BUS -------------X               RATING SET 1    RATING SET 3
  BUS#-SCT X-- NAME --X BASKV  AREA   BUS#-SCT X-- NAME --X BASKV  AREA CKT LOADING   RATE1 PERCENT   RATE3 PERCENT
     1     1           1.0000     1      2     2           1.0000*    1  1     98.0  1000.0     9.8     1.0  9796.8
     1     1           1.0000     1     39     39          1.0000*    1  1    122.6  1000.0    12.3     1.0 12261.4
     2     2           1.0000*    1      3     3           1.0000     1  1    546.5  1000.0    54.7     1.0 54650.1
     2     2           1.0000     1     25     25          1.0000*    1  1    388.6  1000.0    38.9     1.0 38858.2
     3     3           1.0000*    1      4     4           1.0000     1  1    229.5  1000.0    23.0     1.0 22952.5
     3     3           1.0000*    1     18     18          1.0000     1  1    592.8  1000.0    59.3     1.0 59283.2
     4     4           1.0000*    1      5     5           1.0000     1  1    310.2  1000.0    31.0     1.0 31017.4
     4     4           1.0000*    1     14     14          1.0000     1  1    484.6  1000.0    48.5     1.0 48460.4
     5     5           1.0000     1      6     6           1.0000*    1  1    580.1  1000.0    58.0     1.0 58013.6
     5     5           1.0000     1      8     8           1.0000*    1  1    342.7  1000.0    34.3     1.0 34271.8
     6     6           1.0000*    1      7     7           1.0000     1  1    469.1  1000.0    46.9     1.0 46914.1
     6     6           1.0000     1     11     11          1.0000*    1  1    446.6  1000.0    44.7     1.0 44655.4
     7     7           1.0000     1      8     8           1.0000*    1  1    221.4  1000.0    22.1     1.0 22135.0
     8     8           1.0000*    1      9     9           1.0000     1  1     50.2  1000.0     5.0     1.0  5015.4
     9     9           1.0000     1     39     39          1.0000*    1  1    128.2  1000.0    12.8     1.0 12820.6
    10     10          1.0000*    1     11     11          1.0000     1  1    424.4  1000.0    42.4     1.0 42439.6
    10     10          1.0000     1     13     13          1.0000*    1  1    274.4  1000.0    27.4     1.0 27441.4
    13     13          1.0000     1     14     14          1.0000*    1  1    253.3  1000.0    25.3     1.0 25328.6
    14     14          1.0000     1     15     15          1.0000*    1  1    314.9  1000.0    31.5     1.0 31492.5
    15     15          1.0000     1     16     16          1.0000*    1  1    577.8  1000.0    57.8     1.0 57782.8
    16     16          1.0000     1     17     17          1.0000*    1  1    901.5  1000.0    90.1     1.0 90145.3
    16     16          1.0000     1     19     19          1.0000*    1  1    496.5   500.0    99.3     1.0 49653.5
    16     16          1.0000*    1     21     21          1.0000     1  1    990.9   500.0   198.2     1.0 99093.4
    16     16          1.0000     1     24     24          1.0000*    1  1    393.6   500.0    78.7     1.0 39356.6
    17     17          1.0000     1     18     18          1.0000*    1  1    740.1   500.0   148.0     1.0 74007.3
    17     17          1.0000*    1     27     27          1.0000     1  1    184.6   500.0    36.9     1.0 18464.0
    21     21          1.0000     1     22     22          1.0000*    1  1   1256.0   500.0   251.2     1.0125597.6
    22     22          1.0000*    1     23     23          1.0000     1  1    414.5   500.0    82.9     1.0 41454.0
    23     23          1.0000*    1     24     24          1.0000     1  1    713.9   500.0   142.8     1.0 71386.3
    25     25          1.0000     1     26     26          1.0000*    1  1    100.3   500.0    20.1     1.0 10027.2
    26     26          1.0000     1     27     27          1.0000*    1  1    211.8   500.0    42.4     1.0 21181.2
    26     26          1.0000     1     28     28          1.0000*    1  1    147.1   500.0    29.4     1.0 14708.6
    26     26          1.0000     1     29     29          1.0000*    1  1    198.4   500.0    39.7     1.0 19842.6
    28     28          1.0000     1     29     29          1.0000*    1  1    350.0   500.0    70.0     1.0 35001.1
