Begin Report RATE_3
PSS(R)E Xplore-36.1.0 LIMIT CHECKING REPORT - BRANCH FLOWS          TUE, APR 29 2025  21:31
NEW ENGLAND TEST SYSTEM, 39 BUSES, 9 GENERATORS
CREATED BY PABLO LEDESMA PABLOLE@ING.UC3M.ES

SUBSYSTEM LOADING CHECK (INCLUDED: LINES; BREAKERS AND SWITCHES; TRANSFORMERS) (EXCLUDED: NONE)
MVA LOADINGS ABOVE 100.0 % OF BRANCH RATING:
LOADINGS ABOVE 100.0 % OF SWITCHING DEVICE RATING

X----------- FROM BUS ------------X X------------ TO BUS -------------X               RATING SET 1    RATING SET 3
  BUS#-SCT X-- NAME --X BASKV  AREA   BUS#-SCT X-- NAME --X BASKV  AREA CKT LOADING   RATE1 PERCENT   RATE3 PERCENT
     1     1           1.0000     1      2     2           1.0000*    1  1     97.3  1000.0     9.7     1.0  9731.9
     1     1           1.0000     1     39     39          1.0000*    1  1    121.0  1000.0    12.1     1.0 12104.3
     2     2           1.0000*    1      3     3           1.0000     1  1    548.1  1000.0    54.8     1.0 54806.2
     2     2           1.0000     1     25     25          1.0000*    1  1    387.2  1000.0    38.7     1.0 38719.5
     3     3           1.0000*    1      4     4           1.0000     1  1    234.0  1000.0    23.4     1.0 23400.0
     3     3           1.0000*    1     18     18          1.0000     1  1    589.3  1000.0    58.9     1.0 58932.6
     4     4           1.0000*    1      5     5           1.0000     1  1    316.8  1000.0    31.7     1.0 31675.4
     4     4           1.0000*    1     14     14          1.0000     1  1    482.7  1000.0    48.3     1.0 48273.3
     5     5           1.0000     1      6     6           1.0000*    1  1    587.2  1000.0    58.7     1.0 58723.9
     5     5           1.0000     1      8     8           1.0000*    1  1    342.5  1000.0    34.3     1.0 34253.5
     6     6           1.0000*    1      7     7           1.0000     1  1    470.4  1000.0    47.0     1.0 47040.9
     6     6           1.0000     1     11     11          1.0000*    1  1    442.1  1000.0    44.2     1.0 44205.2
     7     7           1.0000     1      8     8           1.0000*    1  1    222.6  1000.0    22.3     1.0 22262.9
     8     8           1.0000*    1      9     9           1.0000     1  1     52.1  1000.0     5.2     1.0  5212.6
     9     9           1.0000     1     39     39          1.0000*    1  1    127.0  1000.0    12.7     1.0 12699.3
    10     10          1.0000*    1     11     11          1.0000     1  1    420.1  1000.0    42.0     1.0 42009.1
    10     10          1.0000     1     13     13          1.0000*    1  1    280.0  1000.0    28.0     1.0 28004.3
    13     13          1.0000     1     14     14          1.0000*    1  1    259.1  1000.0    25.9     1.0 25914.6
    14     14          1.0000     1     15     15          1.0000*    1  1    312.5  1000.0    31.2     1.0 31245.5
    15     15          1.0000     1     16     16          1.0000*    1  1    571.0  1000.0    57.1     1.0 57102.5
    16     16          1.0000     1     17     17          1.0000*    1  1    897.3  1000.0    89.7     1.0 89729.2
    16     16          1.0000     1     19     19          1.0000*    1  1    501.1   500.0   100.2     1.0 50108.7
    16     16          1.0000*    1     21     21          1.0000     1  1    866.4   500.0   173.3     1.0 86638.0
    16     16          1.0000*    1     24     24          1.0000     1  1    503.7   500.0   100.7     1.0 50368.5
    17     17          1.0000     1     18     18          1.0000*    1  1    735.9   500.0   147.2     1.0 73586.3
    17     17          1.0000*    1     27     27          1.0000     1  1    185.9   500.0    37.2     1.0 18594.8
    21     21          1.0000     1     22     22          1.0000*    1  1   1146.2   500.0   229.2     1.0114618.9
    22     22          1.0000*    1     23     23          1.0000     1  1    602.2   500.0   120.4     1.0 60219.4
    23     23          1.0000     1     24     24          1.0000*    1  1    824.1   500.0   164.8     1.0 82406.4
    25     25          1.0000     1     26     26          1.0000*    1  1    101.1   500.0    20.2     1.0 10107.5
    26     26          1.0000     1     27     27          1.0000*    1  1    215.4   500.0    43.1     1.0 21544.2
    26     26          1.0000     1     28     28          1.0000*    1  1    146.7   500.0    29.3     1.0 14674.3
    26     26          1.0000     1     29     29          1.0000*    1  1    198.1   500.0    39.6     1.0 19806.7
    28     28          1.0000     1     29     29          1.0000*    1  1    349.9   500.0    70.0     1.0 34994.0
