Begin Report RATE_3
PSS(R)E Xplore-36.1.0 LIMIT CHECKING REPORT - BRANCH FLOWS          TUE, APR 29 2025  21:32
NEW ENGLAND TEST SYSTEM, 39 BUSES, 9 GENERATORS
CREATED BY PABLO LEDESMA PABLOLE@ING.UC3M.ES

SUBSYSTEM LOADING CHECK (INCLUDED: LINES; BREAKERS AND SWITCHES; TRANSFORMERS) (EXCLUDED: NONE)
MVA LOADINGS ABOVE 100.0 % OF BRANCH RATING:
LOADINGS ABOVE 100.0 % OF SWITCHING DEVICE RATING

X----------- FROM BUS ------------X X------------ TO BUS -------------X               RATING SET 1    RATING SET 3
  BUS#-SCT X-- NAME --X BASKV  AREA   BUS#-SCT X-- NAME --X BASKV  AREA CKT LOADING   RATE1 PERCENT   RATE3 PERCENT
     1     1           1.0000     1      2     2           1.0000*    1  1    209.3  1000.0    20.9     1.0 20932.8
     1     1           1.0000     1     39     39          1.0000*    1  1    215.1  1000.0    21.5     1.0 21509.4
     2     2           1.0000*    1      3     3           1.0000     1  1    393.3  1000.0    39.3     1.0 39333.9
     2     2           1.0000     1     25     25          1.0000*    1  1    351.7  1000.0    35.2     1.0 35173.9
     3     3           1.0000*    1      4     4           1.0000     1  1    395.2  1000.0    39.5     1.0 39521.1
     3     3           1.0000     1     18     18          1.0000*    1  1    372.4  1000.0    37.2     1.0 37239.5
     4     4           1.0000*    1      5     5           1.0000     1  1    219.9  1000.0    22.0     1.0 21989.1
     4     4           1.0000     1     14     14          1.0000*    1  1    238.4  1000.0    23.8     1.0 23842.3
     5     5           1.0000*    1      6     6           1.0000     1  1    204.1  1000.0    20.4     1.0 20413.0
     5     5           1.0000     1      8     8           1.0000*    1  1    313.3  1000.0    31.3     1.0 31334.1
     6     6           1.0000*    1      7     7           1.0000     1  1    375.2  1000.0    37.5     1.0 37516.2
     6     6           1.0000     1     11     11          1.0000*    1  1    271.8  1000.0    27.2     1.0 27179.4
     7     7           1.0000     1      8     8           1.0000*    1  1    128.5  1000.0    12.9     1.0 12854.8
     8     8           1.0000*    1      9     9           1.0000     1  1    112.3  1000.0    11.2     1.0 11229.5
     9     9           1.0000     1     39     39          1.0000*    1  1    142.7  1000.0    14.3     1.0 14268.9
    10     10          1.0000*    1     11     11          1.0000     1  1    442.0  1000.0    44.2     1.0 44201.2
    10     10          1.0000     1     13     13          1.0000*    1  1    302.4  1000.0    30.2     1.0 30239.6
    13     13          1.0000     1     14     14          1.0000*    1  1    308.1  1000.0    30.8     1.0 30810.7
    14     14          1.0000*    1     15     15          1.0000     1  1    542.0  1000.0    54.2     1.0 54202.1
    15     15          1.0000     1     16     16          1.0000*    1  1    847.2  1000.0    84.7     1.0 84724.2
    16     16          1.0000     1     17     17          1.0000*    1  1    649.4  1000.0    64.9     1.0 64935.3
    16     16          1.0000     1     19     19          1.0000*    1  1    502.7   500.0   100.5     1.0 50269.0
    16     16          1.0000*    1     21     21          1.0000     1  1    988.3   500.0   197.7     1.0 98830.4
    16     16          1.0000     1     24     24          1.0000*    1  1    393.4   500.0    78.7     1.0 39340.5
    17     17          1.0000*    1     18     18          1.0000     1  1    516.5   500.0   103.3     1.0 51647.9
    17     17          1.0000*    1     27     27          1.0000     1  1    154.8   500.0    31.0     1.0 15484.7
    21     21          1.0000     1     22     22          1.0000*    1  1   1257.2   500.0   251.4     1.0125719.0
    22     22          1.0000*    1     23     23          1.0000     1  1    414.6   500.0    82.9     1.0 41457.5
    23     23          1.0000*    1     24     24          1.0000     1  1    714.4   500.0   142.9     1.0 71439.3
    25     25          1.0000     1     26     26          1.0000*    1  1     81.8   500.0    16.4     1.0  8178.6
    26     26          1.0000     1     27     27          1.0000*    1  1    233.5   500.0    46.7     1.0 23351.5
    26     26          1.0000     1     28     28          1.0000*    1  1    147.1   500.0    29.4     1.0 14705.9
    26     26          1.0000     1     29     29          1.0000*    1  1    198.4   500.0    39.7     1.0 19839.8
    28     28          1.0000     1     29     29          1.0000*    1  1    350.0   500.0    70.0     1.0 35000.6
