Begin Report RATE_3
PSS(R)E Xplore-36.1.0 LIMIT CHECKING REPORT - BRANCH FLOWS          TUE, APR 29 2025  21:32
NEW ENGLAND TEST SYSTEM, 39 BUSES, 9 GENERATORS
CREATED BY PABLO LEDESMA PABLOLE@ING.UC3M.ES

SUBSYSTEM LOADING CHECK (INCLUDED: LINES; BREAKERS AND SWITCHES; TRANSFORMERS) (EXCLUDED: NONE)
MVA LOADINGS ABOVE 100.0 % OF BRANCH RATING:
LOADINGS ABOVE 100.0 % OF SWITCHING DEVICE RATING

X----------- FROM BUS ------------X X------------ TO BUS -------------X               RATING SET 1    RATING SET 3
  BUS#-SCT X-- NAME --X BASKV  AREA   BUS#-SCT X-- NAME --X BASKV  AREA CKT LOADING   RATE1 PERCENT   RATE3 PERCENT
     1     1           1.0000     1      2     2           1.0000*    1  1    208.3  1000.0    20.8     1.0 20832.9
     1     1           1.0000     1     39     39          1.0000*    1  1    213.7  1000.0    21.4     1.0 21367.9
     2     2           1.0000*    1      3     3           1.0000     1  1    395.0  1000.0    39.5     1.0 39499.8
     2     2           1.0000     1     25     25          1.0000*    1  1    350.4  1000.0    35.0     1.0 35042.1
     3     3           1.0000*    1      4     4           1.0000     1  1    390.7  1000.0    39.1     1.0 39072.7
     3     3           1.0000     1     18     18          1.0000*    1  1    369.9  1000.0    37.0     1.0 36994.0
     4     4           1.0000*    1      5     5           1.0000     1  1    218.4  1000.0    21.8     1.0 21840.9
     4     4           1.0000     1     14     14          1.0000*    1  1    237.2  1000.0    23.7     1.0 23715.3
     5     5           1.0000*    1      6     6           1.0000     1  1    210.9  1000.0    21.1     1.0 21093.1
     5     5           1.0000     1      8     8           1.0000*    1  1    313.1  1000.0    31.3     1.0 31310.4
     6     6           1.0000*    1      7     7           1.0000     1  1    376.3  1000.0    37.6     1.0 37627.0
     6     6           1.0000     1     11     11          1.0000*    1  1    273.1  1000.0    27.3     1.0 27309.8
     7     7           1.0000     1      8     8           1.0000*    1  1    129.7  1000.0    13.0     1.0 12965.2
     8     8           1.0000*    1      9     9           1.0000     1  1    111.9  1000.0    11.2     1.0 11191.7
     9     9           1.0000     1     39     39          1.0000*    1  1    140.9  1000.0    14.1     1.0 14089.7
    10     10          1.0000*    1     11     11          1.0000     1  1    437.5  1000.0    43.7     1.0 43748.8
    10     10          1.0000     1     13     13          1.0000*    1  1    307.8  1000.0    30.8     1.0 30775.4
    13     13          1.0000     1     14     14          1.0000*    1  1    304.0  1000.0    30.4     1.0 30395.0
    14     14          1.0000*    1     15     15          1.0000     1  1    536.8  1000.0    53.7     1.0 53675.8
    15     15          1.0000     1     16     16          1.0000*    1  1    839.4  1000.0    83.9     1.0 83940.7
    16     16          1.0000     1     17     17          1.0000*    1  1    646.7  1000.0    64.7     1.0 64669.6
    16     16          1.0000     1     19     19          1.0000*    1  1    507.4   500.0   101.5     1.0 50743.5
    16     16          1.0000*    1     21     21          1.0000     1  1    864.7   500.0   172.9     1.0 86468.6
    16     16          1.0000*    1     24     24          1.0000     1  1    502.0   500.0   100.4     1.0 50202.8
    17     17          1.0000*    1     18     18          1.0000     1  1    512.9   500.0   102.6     1.0 51289.5
    17     17          1.0000*    1     27     27          1.0000     1  1    156.6   500.0    31.3     1.0 15656.9
    21     21          1.0000     1     22     22          1.0000*    1  1   1148.0   500.0   229.6     1.0114797.2
    22     22          1.0000*    1     23     23          1.0000     1  1    603.0   500.0   120.6     1.0 60298.1
    23     23          1.0000     1     24     24          1.0000*    1  1    822.4   500.0   164.5     1.0 82239.5
    25     25          1.0000     1     26     26          1.0000*    1  1     83.2   500.0    16.6     1.0  8322.1
    26     26          1.0000     1     27     27          1.0000*    1  1    236.9   500.0    47.4     1.0 23685.2
    26     26          1.0000     1     28     28          1.0000*    1  1    146.7   500.0    29.3     1.0 14672.6
    26     26          1.0000     1     29     29          1.0000*    1  1    198.0   500.0    39.6     1.0 19804.9
    28     28          1.0000     1     29     29          1.0000*    1  1    349.9   500.0    70.0     1.0 34993.7
