Begin Report RATE_3
PSS(R)E Xplore-36.1.0 LIMIT CHECKING REPORT - BRANCH FLOWS          TUE, APR 29 2025  21:32
NEW ENGLAND TEST SYSTEM, 39 BUSES, 9 GENERATORS
CREATED BY PABLO LEDESMA PABLOLE@ING.UC3M.ES

SUBSYSTEM LOADING CHECK (INCLUDED: LINES; BREAKERS AND SWITCHES; TRANSFORMERS) (EXCLUDED: NONE)
MVA LOADINGS ABOVE 100.0 % OF BRANCH RATING:
LOADINGS ABOVE 100.0 % OF SWITCHING DEVICE RATING

X----------- FROM BUS ------------X X------------ TO BUS -------------X               RATING SET 1    RATING SET 3
  BUS#-SCT X-- NAME --X BASKV  AREA   BUS#-SCT X-- NAME --X BASKV  AREA CKT LOADING   RATE1 PERCENT   RATE3 PERCENT
     1     1           1.0000     1      2     2           1.0000*    1  1    199.1  1000.0    19.9     1.0 19914.4
     1     1           1.0000     1     39     39          1.0000*    1  1    209.4  1000.0    20.9     1.0 20942.7
     2     2           1.0000*    1      3     3           1.0000     1  1    389.1  1000.0    38.9     1.0 38905.7
     2     2           1.0000     1     25     25          1.0000*    1  1    349.5  1000.0    35.0     1.0 34954.5
     3     3           1.0000*    1      4     4           1.0000     1  1    392.0  1000.0    39.2     1.0 39197.2
     3     3           1.0000     1     18     18          1.0000*    1  1    366.3  1000.0    36.6     1.0 36629.8
     4     4           1.0000*    1      5     5           1.0000     1  1    206.1  1000.0    20.6     1.0 20609.0
     4     4           1.0000     1     14     14          1.0000*    1  1    174.8  1000.0    17.5     1.0 17484.9
     5     5           1.0000*    1      6     6           1.0000     1  1    271.0  1000.0    27.1     1.0 27102.5
     5     5           1.0000     1      8     8           1.0000*    1  1    315.2  1000.0    31.5     1.0 31518.2
     6     6           1.0000*    1      7     7           1.0000     1  1    389.1  1000.0    38.9     1.0 38913.1
     6     6           1.0000     1     11     11          1.0000*    1  1    181.3  1000.0    18.1     1.0 18129.6
     7     7           1.0000     1      8     8           1.0000*    1  1    142.2  1000.0    14.2     1.0 14222.5
     8     8           1.0000*    1      9     9           1.0000     1  1     93.6  1000.0     9.4     1.0  9360.5
     9     9           1.0000     1     39     39          1.0000*    1  1    157.7  1000.0    15.8     1.0 15767.8
    10     10          1.0000*    1     11     11          1.0000     1  1    135.7  1000.0    13.6     1.0 13569.6
    10     10          1.0000*    1     13     13          1.0000     1  1    621.8  1000.0    62.2     1.0 62183.3
    13     13          1.0000     1     14     14          1.0000*    1  1    398.6  1000.0    39.9     1.0 39856.9
    14     14          1.0000*    1     15     15          1.0000     1  1    570.0  1000.0    57.0     1.0 56999.1
    15     15          1.0000     1     16     16          1.0000*    1  1    860.7  1000.0    86.1     1.0 86071.5
    16     16          1.0000     1     17     17          1.0000*    1  1    635.5  1000.0    63.6     1.0 63550.1
    16     16          1.0000     1     19     19          1.0000*    1  1    494.3   500.0    98.9     1.0 49431.6
    16     16          1.0000*    1     21     21          1.0000     1  1    992.0   500.0   198.4     1.0 99195.2
    16     16          1.0000     1     24     24          1.0000*    1  1    393.7   500.0    78.7     1.0 39365.1
    17     17          1.0000*    1     18     18          1.0000     1  1    508.7   500.0   101.7     1.0 50871.5
    17     17          1.0000*    1     27     27          1.0000     1  1    145.3   500.0    29.1     1.0 14531.6
    21     21          1.0000     1     22     22          1.0000*    1  1   1255.6   500.0   251.1     1.0125555.1
    22     22          1.0000*    1     23     23          1.0000     1  1    414.5   500.0    82.9     1.0 41453.0
    23     23          1.0000*    1     24     24          1.0000     1  1    713.7   500.0   142.7     1.0 71368.6
    25     25          1.0000     1     26     26          1.0000*    1  1     77.8   500.0    15.6     1.0  7780.7
    26     26          1.0000     1     27     27          1.0000*    1  1    231.2   500.0    46.2     1.0 23123.2
    26     26          1.0000     1     28     28          1.0000*    1  1    148.1   500.0    29.6     1.0 14808.0
    26     26          1.0000     1     29     29          1.0000*    1  1    199.4   500.0    39.9     1.0 19945.0
    28     28          1.0000     1     29     29          1.0000*    1  1    350.2   500.0    70.0     1.0 35023.3
