Begin Report RATE_3
PSS(R)E Xplore-36.1.0 LIMIT CHECKING REPORT - BRANCH FLOWS          TUE, APR 29 2025  21:31
NEW ENGLAND TEST SYSTEM, 39 BUSES, 9 GENERATORS
CREATED BY PABLO LEDESMA PABLOLE@ING.UC3M.ES

SUBSYSTEM LOADING CHECK (INCLUDED: LINES; BREAKERS AND SWITCHES; TRANSFORMERS) (EXCLUDED: NONE)
MVA LOADINGS ABOVE 100.0 % OF BRANCH RATING:
LOADINGS ABOVE 100.0 % OF SWITCHING DEVICE RATING

X----------- FROM BUS ------------X X------------ TO BUS -------------X               RATING SET 1    RATING SET 3
  BUS#-SCT X-- NAME --X BASKV  AREA   BUS#-SCT X-- NAME --X BASKV  AREA CKT LOADING   RATE1 PERCENT   RATE3 PERCENT
     1     1           1.0000     1      2     2           1.0000*    1  1     54.1  1000.0     5.4     1.0  5411.3
     1     1           1.0000     1     39     39          1.0000*    1  1    101.6  1000.0    10.2     1.0 10157.4
     2     2           1.0000     1      3     3           1.0000*    1  1    294.4  1000.0    29.4     1.0 29443.7
     2     2           1.0000     1     25     25          1.0000*    1  1    516.2  1000.0    51.6     1.0 51615.5
     3     3           1.0000*    1      4     4           1.0000     1  1    153.6  1000.0    15.4     1.0 15361.5
     3     3           1.0000     1     18     18          1.0000*    1  1    469.0  1000.0    46.9     1.0 46898.2
     4     4           1.0000*    1      5     5           1.0000     1  1    258.3  1000.0    25.8     1.0 25826.1
     4     4           1.0000     1     14     14          1.0000*    1  1    454.2  1000.0    45.4     1.0 45415.6
     5     5           1.0000     1      6     6           1.0000*    1  1    575.9  1000.0    57.6     1.0 57592.1
     5     5           1.0000*    1      8     8           1.0000     1  1    386.1  1000.0    38.6     1.0 38605.8
     6     6           1.0000*    1      7     7           1.0000     1  1    502.9  1000.0    50.3     1.0 50293.2
     6     6           1.0000     1     11     11          1.0000*    1  1    449.8  1000.0    45.0     1.0 44978.3
     7     7           1.0000     1      8     8           1.0000*    1  1    254.8  1000.0    25.5     1.0 25481.6
     8     8           1.0000*    1      9     9           1.0000     1  1    107.8  1000.0    10.8     1.0 10781.8
     9     9           1.0000     1     39     39          1.0000*    1  1    162.9  1000.0    16.3     1.0 16287.9
    10     10          1.0000*    1     11     11          1.0000     1  1    428.3  1000.0    42.8     1.0 42826.3
    10     10          1.0000     1     13     13          1.0000*    1  1    257.8  1000.0    25.8     1.0 25780.8
    13     13          1.0000     1     14     14          1.0000*    1  1    237.5  1000.0    23.8     1.0 23753.4
    14     14          1.0000     1     15     15          1.0000*    1  1    280.5  1000.0    28.0     1.0 28048.0
    15     15          1.0000     1     16     16          1.0000*    1  1    551.1  1000.0    55.1     1.0 55105.6
    16     16          1.0000     1     17     17          1.0000*    1  1    899.7  1000.0    90.0     1.0 89966.9
    16     16          1.0000     1     19     19          1.0000*    1  1   1432.2   500.0   286.4     1.0143216.2
    16     16          1.0000*    1     21     21          1.0000     1  1    331.8   500.0    66.4     1.0 33175.5
    16     16          1.0000*    1     24     24          1.0000     1  1    139.5   500.0    27.9     1.0 13949.9
    17     17          1.0000*    1     18     18          1.0000     1  1    617.5   500.0   123.5     1.0 61747.0
    17     17          1.0000*    1     27     27          1.0000     1  1    286.6   500.0    57.3     1.0 28655.4
    21     21          1.0000     1     22     22          1.0000*    1  1    630.1   500.0   126.0     1.0 63013.3
    22     22          1.0000     1     23     23          1.0000*    1  1     77.5   500.0    15.5     1.0  7753.9
    23     23          1.0000*    1     24     24          1.0000     1  1    356.0   500.0    71.2     1.0 35600.1
    25     25          1.0000     1     26     26          1.0000*    1  1    198.6   500.0    39.7     1.0 19856.3
    26     26          1.0000     1     27     27          1.0000*    1  1    151.3   500.0    30.3     1.0 15127.5
    26     26          1.0000     1     28     28          1.0000*    1  1    149.6   500.0    29.9     1.0 14960.2
    26     26          1.0000     1     29     29          1.0000*    1  1    201.0   500.0    40.2     1.0 20097.8
    28     28          1.0000     1     29     29          1.0000*    1  1    350.6   500.0    70.1     1.0 35060.9
